data_dft_P42/mmc  hall_number: 412, V_con: 4
_audit_creation_date              2025-03-06
_audit_creation_method            'MOFbuilder_1.0'
_symmetry_space_group_name_H-M    'P1'
_symmetry_Int_Tables_number       1
_symmetry_cell_setting            triclinic
loop_
_symmetry_equiv_pos_as_xyz
  x,y,z
_cell_length_a                    22.451500000000003
_cell_length_b                    22.451500000000003
_cell_length_c                    29.482599999999998
_cell_angle_alpha                 90.0
_cell_angle_beta                  90.0
_cell_angle_gamma                 90.0
loop_
_atom_site_label
_atom_site_type_symbol
_atom_site_fract_x
_atom_site_fract_y
_atom_site_fract_z
V1    V   0.00000  0.27730  0.33041
V2    V   0.00000  0.27730  0.66959
V3    V   0.00000  0.72270  0.33041
V4    V   0.00000  0.72270  0.66959
V5    V   0.27730  0.00000  0.16959
V6    V   0.27730  0.00000  0.83041
V7    V   0.72270  0.00000  0.16959
V8    V   0.72270  0.00000  0.83041
E1    E   0.00000  0.27730  0.50000
E2    E   0.00000  0.50000  0.33041
E3    E   0.00000  0.50000  0.66959
E4    E   0.00000  0.72270  0.50000
E5    E   0.13865  0.13865  0.25000
E6    E   0.13865  0.13865  0.75000
E7    E   0.13865  0.86135  0.25000
E8    E   0.13865  0.86135  0.75000
E9    E   0.27730  0.00000  0.00000
E10   E   0.50000  0.00000  0.16959
E11   E   0.50000  0.00000  0.83041
E12   E   0.72270  0.00000  0.00000
E13   E   0.86135  0.13865  0.25000
E14   E   0.86135  0.13865  0.75000
E15   E   0.86135  0.86135  0.25000
E16   E   0.86135  0.86135  0.75000
loop_
